src/i2x/models/ieee9500/graph/transformer.dss
New "Transformer.hvmv115_69sub" phases=3 windings=2 buses=[hvmv115_hsb2, regxfmr_hvmv69sub1_lsb1.1.2.3.0, ] conns=[delta, wye, ] kVs=[115, 69, ] kVAs=[75000, 75000, ] XHL=7.05 buses=[hvmv115_hsb2, regxfmr_hvmv69sub1_lsb1.1.2.3.0, ] conns=[delta, wye, ] kVs=[115, 69, ] kVAs=[75000, 75000, ] taps=[1, 1, ] wdg=1 %R=0.67 RdcOhms=1.004218 wdg=2 %R=0.67 RdcOhms=0.1205062
New "Transformer.hvmv69_11sub1" phases=3 windings=2 buses=[hvmv69sub1_hsb, regxfmr_hvmv11sub1_lsb.1.2.3.0, ] conns=[wye, wye, ] kVs=[69, 12.47, ] kVAs=[20000, 20000, ] XHL=7.94 buses=[hvmv69sub1_hsb, regxfmr_hvmv11sub1_lsb.1.2.3.0, ] conns=[wye, wye, ] kVs=[69, 12.47, ] kVAs=[20000, 20000, ] taps=[1, 1, ] wdg=1 %R=0.67 RdcOhms=0.4518983 wdg=2 %R=0.67 RdcOhms=0.01475963
New "Transformer.feeder_reg1a" phases=1 windings=2 buses=[regxfmr_hvmv11sub1_lsb.1, hvmv11sub1_lsb.1, ] conns=[wye, wye, ] kVs=[7.2, 7.2, ] kVAs=[27500, 27500, ] XHL=0.1 %loadloss=0.001 buses=[regxfmr_hvmv11sub1_lsb.1, hvmv11sub1_lsb.1, ] conns=[wye, wye, ] kVs=[7.2, 7.2, ] kVAs=[27500, 27500, ] taps=[1, 0.98125, ] wdg=1 %R=0.0005 RdcOhms=8.011636E-006 wdg=2 %R=0.0005 RdcOhms=8.011636E-006 MaxTap=1.1 MinTap=0.9 ppm_antifloat=0
New "Transformer.feeder_reg1b" phases=1 windings=2 buses=[regxfmr_hvmv11sub1_lsb.2, hvmv11sub1_lsb.2, ] conns=[wye, wye, ] kVs=[7.2, 7.2, ] kVAs=[27500, 27500, ] XHL=0.1 %loadloss=0.001 buses=[regxfmr_hvmv11sub1_lsb.2, hvmv11sub1_lsb.2, ] conns=[wye, wye, ] kVs=[7.2, 7.2, ] kVAs=[27500, 27500, ] taps=[1, 0.98125, ] wdg=1 %R=0.0005 RdcOhms=8.011636E-006 wdg=2 %R=0.0005 RdcOhms=8.011636E-006 MaxTap=1.1 MinTap=0.9 ppm_antifloat=0
New "Transformer.feeder_reg1c" phases=1 windings=2 buses=[regxfmr_hvmv11sub1_lsb.3, hvmv11sub1_lsb.3, ] conns=[wye, wye, ] kVs=[7.2, 7.2, ] kVAs=[27500, 27500, ] XHL=0.1 %loadloss=0.001 buses=[regxfmr_hvmv11sub1_lsb.3, hvmv11sub1_lsb.3, ] conns=[wye, wye, ] kVs=[7.2, 7.2, ] kVAs=[27500, 27500, ] taps=[1, 0.98125, ] wdg=1 %R=0.0005 RdcOhms=8.011636E-006 wdg=2 %R=0.0005 RdcOhms=8.011636E-006 MaxTap=1.1 MinTap=0.9 ppm_antifloat=0
New "Transformer.hvmv69_11sub2" phases=3 windings=2 buses=[hvmv69sub2_hsb, regxfmr_hvmv11sub2_lsb.1.2.3.0, ] conns=[wye, wye, ] kVs=[69, 12.47, ] kVAs=[20000, 20000, ] XHL=7.94 buses=[hvmv69sub2_hsb, regxfmr_hvmv11sub2_lsb.1.2.3.0, ] conns=[wye, wye, ] kVs=[69, 12.47, ] kVAs=[20000, 20000, ] taps=[1, 1, ] wdg=1 %R=0.67 RdcOhms=0.4518983 wdg=2 %R=0.67 RdcOhms=0.01475963
New "Transformer.feeder_reg2a" phases=1 windings=2 buses=[regxfmr_hvmv11sub2_lsb.1, hvmv11sub2_lsb.1, ] conns=[wye, wye, ] kVs=[7.2, 7.2, ] kVAs=[27500, 27500, ] XHL=0.1 %loadloss=0.001 buses=[regxfmr_hvmv11sub2_lsb.1, hvmv11sub2_lsb.1, ] conns=[wye, wye, ] kVs=[7.2, 7.2, ] kVAs=[27500, 27500, ] taps=[1, 0.99375, ] wdg=1 %R=0.0005 RdcOhms=8.011636E-006 wdg=2 %R=0.0005 RdcOhms=8.011636E-006 MaxTap=1.1 MinTap=0.9 ppm_antifloat=0
New "Transformer.feeder_reg2b" phases=1 windings=2 buses=[regxfmr_hvmv11sub2_lsb.2, hvmv11sub2_lsb.2, ] conns=[wye, wye, ] kVs=[7.2, 7.2, ] kVAs=[27500, 27500, ] XHL=0.1 %loadloss=0.001 buses=[regxfmr_hvmv11sub2_lsb.2, hvmv11sub2_lsb.2, ] conns=[wye, wye, ] kVs=[7.2, 7.2, ] kVAs=[27500, 27500, ] taps=[1, 0.99375, ] wdg=1 %R=0.0005 RdcOhms=8.011636E-006 wdg=2 %R=0.0005 RdcOhms=8.011636E-006 MaxTap=1.1 MinTap=0.9 ppm_antifloat=0
New "Transformer.feeder_reg2c" phases=1 windings=2 buses=[regxfmr_hvmv11sub2_lsb.3, hvmv11sub2_lsb.3, ] conns=[wye, wye, ] kVs=[7.2, 7.2, ] kVAs=[27500, 27500, ] XHL=0.1 %loadloss=0.001 buses=[regxfmr_hvmv11sub2_lsb.3, hvmv11sub2_lsb.3, ] conns=[wye, wye, ] kVs=[7.2, 7.2, ] kVAs=[27500, 27500, ] taps=[1, 0.99375, ] wdg=1 %R=0.0005 RdcOhms=8.011636E-006 wdg=2 %R=0.0005 RdcOhms=8.011636E-006 MaxTap=1.1 MinTap=0.9 ppm_antifloat=0
New "Transformer.hvmv69_11sub3" phases=3 windings=2 buses=[hvmv69sub3_hsb, regxfmr_hvmv11sub3_lsb.1.2.3.0, ] conns=[wye, wye, ] kVs=[69, 12.47, ] kVAs=[20000, 20000, ] XHL=7.94 buses=[hvmv69sub3_hsb, regxfmr_hvmv11sub3_lsb.1.2.3.0, ] conns=[wye, wye, ] kVs=[69, 12.47, ] kVAs=[20000, 20000, ] taps=[1, 1, ] wdg=1 %R=0.67 RdcOhms=0.4518983 wdg=2 %R=0.67 RdcOhms=0.01475963
New "Transformer.feeder_reg3a" phases=1 windings=2 buses=[regxfmr_hvmv11sub3_lsb.1, hvmv11sub3_lsb.1, ] conns=[wye, wye, ] kVs=[7.2, 7.2, ] kVAs=[27500, 27500, ] XHL=0.1 %loadloss=0.001 buses=[regxfmr_hvmv11sub3_lsb.1, hvmv11sub3_lsb.1, ] conns=[wye, wye, ] kVs=[7.2, 7.2, ] kVAs=[27500, 27500, ] taps=[1, 1, ] wdg=1 %R=0.0005 RdcOhms=8.011636E-006 wdg=2 %R=0.0005 RdcOhms=8.011636E-006 MaxTap=1.1 MinTap=0.9 ppm_antifloat=0
New "Transformer.feeder_reg3b" phases=1 windings=2 buses=[regxfmr_hvmv11sub3_lsb.2, hvmv11sub3_lsb.2, ] conns=[wye, wye, ] kVs=[7.2, 7.2, ] kVAs=[27500, 27500, ] XHL=0.1 %loadloss=0.001 buses=[regxfmr_hvmv11sub3_lsb.2, hvmv11sub3_lsb.2, ] conns=[wye, wye, ] kVs=[7.2, 7.2, ] kVAs=[27500, 27500, ] taps=[1, 1, ] wdg=1 %R=0.0005 RdcOhms=8.011636E-006 wdg=2 %R=0.0005 RdcOhms=8.011636E-006 MaxTap=1.1 MinTap=0.9 ppm_antifloat=0
New "Transformer.feeder_reg3c" phases=1 windings=2 buses=[regxfmr_hvmv11sub3_lsb.3, hvmv11sub3_lsb.3, ] conns=[wye, wye, ] kVs=[7.2, 7.2, ] kVAs=[27500, 27500, ] XHL=0.1 %loadloss=0.001 buses=[regxfmr_hvmv11sub3_lsb.3, hvmv11sub3_lsb.3, ] conns=[wye, wye, ] kVs=[7.2, 7.2, ] kVAs=[27500, 27500, ] taps=[1, 0.99375, ] wdg=1 %R=0.0005 RdcOhms=8.011636E-006 wdg=2 %R=0.0005 RdcOhms=8.011636E-006 MaxTap=1.1 MinTap=0.9 ppm_antifloat=0
New "Transformer.t21396254a" XfmrCode=CT15 buses=[l2804253.1, x2804253a.1.0, x2804253a.0.2, ]
New "Transformer.t5321859b" XfmrCode=CT25 buses=[l3254213.2, x3254213b.1.0, x3254213b.0.2, ]
New "Transformer.t5391741b" XfmrCode=CT25 buses=[l3216339.2, x3216339b.1.0, x3216339b.0.2, ]
New "Transformer.t5293672a" XfmrCode=CT15 buses=[l2954355.1, x2954355a.1.0, x2954355a.0.2, ]
New "Transformer.t21474711c" XfmrCode=CT15 buses=[l2861197.3, x2861197c.1.0, x2861197c.0.2, ]
New "Transformer.t5260488a" XfmrCode=CT37 buses=[l2842379.1, x2842379a.1.0, x2842379a.0.2, ]
New "Transformer.t5391758b" XfmrCode=CT15 buses=[l2841636.2, x2841636b.1.0, x2841636b.0.2, ]
New "Transformer.t228091193a" XfmrCode=CT50 buses=[l3047289.1, x3047289a.1.0, x3047289a.0.2, ]
New "Transformer.t228091193b" XfmrCode=CT50 buses=[l3047289.2, x3047289b.1.0, x3047289b.0.2, ]
New "Transformer.t228091193c" XfmrCode=CT50 buses=[l3047289.3, x3047289c.1.0, x3047289c.0.2, ]
New "Transformer.t5302862c" XfmrCode=CT15 buses=[l3085399.3, x3085399c.1.0, x3085399c.0.2, ]
New "Transformer.t21236413b" XfmrCode=CT50 buses=[l3085391.2, x3085391b.1.0, x3085391b.0.2, ]
New "Transformer.t5302468a" XfmrCode=CT10 buses=[l2897778.1, x2897778a.1.0, x2897778a.0.2, ]
New "Transformer.t5294787a" XfmrCode=CT10 buses=[l3197647.1, x3197647a.1.0, x3197647a.0.2, ]
New "Transformer.t5157715b" XfmrCode=CT10 buses=[l2936275.2, x2936275b.1.0, x2936275b.0.2, ]
New "Transformer.t5355768b" XfmrCode=CT25 buses=[l2729408.2, x2729408b.1.0, x2729408b.0.2, ]
New "Transformer.t5138562a" XfmrCode=CT25 buses=[l2673310.1, x2673310a.1.0, x2673310a.0.2, ]
New "Transformer.t5355934a" XfmrCode=CT10 buses=[l3048212.1, x3048212a.1.0, x3048212a.0.2, ]
New "Transformer.t5293483a" XfmrCode=CT25 buses=[l3104133.1, x3104133a.1.0, x3104133a.0.2, ]
New "Transformer.t21399762a" XfmrCode=CT15 buses=[l2879087.3, x2879087a.1.0, x2879087a.0.2, ]
New "Transformer.t5138650c" XfmrCode=CT10 buses=[l2710510.3, x2710510c.1.0, x2710510c.0.2, ]
New "Transformer.t5323242b" XfmrCode=CT25 buses=[l3122810.2, x3122810b.1.0, x3122810b.0.2, ]
New "Transformer.t28127090c" XfmrCode=CT25 buses=[l2954352.3, x2954352c.1.0, x2954352c.0.2, ]
New "Transformer.t5138769a" XfmrCode=CT10 buses=[l2729411.1, x2729411a.1.0, x2729411a.0.2, ]
New "Transformer.t5338896a" XfmrCode=CT15 buses=[l3178971.1, x3178971a.1.0, x3178971a.0.2, ]
New "Transformer.t5355586b" XfmrCode=CT25 buses=[l3254234.2, x3254234b.1.0, x3254234b.0.2, ]
New "Transformer.t5293471a" XfmrCode=CT25 buses=[293471.1, x_293471a.1.0, x_293471a.0.2, ]
New "Transformer.t5293471b" XfmrCode=CT25 buses=[293471.2, x_293471b.1.0, x_293471b.0.2, ]
New "Transformer.t5293471c" XfmrCode=CT25 buses=[293471.3, x_293471c.1.0, x_293471c.0.2, ]
New "Transformer.t5338954a" XfmrCode=CT25 buses=[l2860482.1, x2860482a.1.0, x2860482a.0.2, ]
New "Transformer.t21459629c" XfmrCode=CT75 buses=[l2763811.1, x2763811c.1.0, x2763811c.0.2, ]
New "Transformer.t5260562a" XfmrCode=CT37 buses=[l3251799.1, x3251799a.1.0, x3251799a.0.2, ]
New "Transformer.t21393486c" XfmrCode=CT15 buses=[l2898526.3, x2898526c.1.0, x2898526c.0.2, ]
New "Transformer.t5293518b" XfmrCode=CT25 buses=[l2897780.2, x2897780b.1.0, x2897780b.0.2, ]
New "Transformer.t226195194c" XfmrCode=CT25 buses=[l3027124.3, x3027124c.1.0, x3027124c.0.2, ]
New "Transformer.t21383494b" XfmrCode=CT25 buses=[l2954361.2, x2954361b.1.0, x2954361b.0.2, ]
New "Transformer.t5251863c" XfmrCode=CT25 buses=[l2745811.3, x2745811c.1.0, x2745811c.0.2, ]
New "Transformer.t5293645a" XfmrCode=CT25 buses=[l2841633.1, x2841633a.1.0, x2841633a.0.2, ]
New "Transformer.t21482431a" XfmrCode=CT15 buses=[l2917359.1, x2917359a.1.0, x2917359a.0.2, ]
New "Transformer.t5293480a" XfmrCode=CT15 buses=[l2748158.1, x2748158a.1.0, x2748158a.0.2, ]
New "Transformer.t21469911a" XfmrCode=CT25 buses=[l2955047.1, x2955047a.1.0, x2955047a.0.2, ]
New "Transformer.t5355432c" XfmrCode=CT37 buses=[l3122837.3, x3122837c.1.0, x3122837c.0.2, ]
New "Transformer.t5323285b" XfmrCode=CT25 buses=[l2804269.2, x2804269b.1.0, x2804269b.0.2, ]
New "Transformer.t226192954c" XfmrCode=CT15 buses=[l3157708.3, x3157708c.1.0, x3157708c.0.2, ]
New "Transformer.t5207292c" XfmrCode=CT15 buses=[l3179682.3, x3179682c.1.0, x3179682c.0.2, ]
New "Transformer.t5337672b" XfmrCode=CT25 buses=[l2822877.2, x2822877b.1.0, x2822877b.0.2, ]
New "Transformer.t5442373c" XfmrCode=CT25 buses=[l3141393.3, x3141393c.1.0, x3141393c.0.2, ]
New "Transformer.t21470405a" XfmrCode=CT37 buses=[l2897801.1, x2897801a.1.0, x2897801a.0.2, ]
New "Transformer.t5218474a" XfmrCode=CT50 buses=[l3217056.1, x3217056a.1.0, x3217056a.0.2, ]
New "Transformer.t5218472a" XfmrCode=CT25 buses=[l2936270.1, x2936270a.1.0, x2936270a.0.2, ]
New "Transformer.t5356014a" XfmrCode=CT10 buses=[l3235249.1, x3235249a.1.0, x3235249a.0.2, ]
New "Transformer.t5260528c" XfmrCode=CT25 buses=[l3217052.3, x3217052c.1.0, x3217052c.0.2, ]
New "Transformer.t5355933a" XfmrCode=CT10 buses=[l2916598.1, x2916598a.1.0, x2916598a.0.2, ]
New "Transformer.t5138649a" XfmrCode=CT25 buses=[l3048206.1, x3048206a.1.0, x3048206a.0.2, ]
New "Transformer.t5391978c" XfmrCode=CT25 buses=[l3141402.3, x3141402c.1.0, x3141402c.0.2, ]
New "Transformer.t5138642a" XfmrCode=CT15 buses=[l3235256.1, x3235256a.1.0, x3235256a.0.2, ]
New "Transformer.t21149420a" XfmrCode=CT25 buses=[l3178973.1, x3178973a.1.0, x3178973a.0.2, ]
New "Transformer.t21382992a" XfmrCode=CT25 buses=[l3197654.1, x3197654a.1.0, x3197654a.0.2, ]
New "Transformer.t5338958c" XfmrCode=CT25 buses=[l3066809.3, x3066809c.1.0, x3066809c.0.2, ]
New "Transformer.t5355585b" XfmrCode=CT15 buses=[l2766742.2, x2766742b.1.0, x2766742b.0.2, ]
New "Transformer.t5338900a" XfmrCode=CT15 buses=[l2991908.1, x2991908a.1.0, x2991908a.0.2, ]
New "Transformer.t5323389b" XfmrCode=CT25 buses=[l3065750.2, x3065750b.1.0, x3065750b.0.2, ]
New "Transformer.t28127253a" XfmrCode=CT37 buses=[l3085401.1, x3085401a.1.0, x3085401a.0.2, ]
New "Transformer.t21397067a" XfmrCode=CT15 buses=[l2729413.1, x2729413a.1.0, x2729413a.0.2, ]
New "Transformer.t5260520b" XfmrCode=CT5 buses=[l3254915.2, x3254915b.1.0, x3254915b.0.2, ]
New "Transformer.t5323250b" XfmrCode=CT15 buses=[l2748131.2, x2748131b.1.0, x2748131b.0.2, ]
New "Transformer.t5337659c" XfmrCode=CT25 buses=[l3066810.3, x3066810c.1.0, x3066810c.0.2, ]
New "Transformer.t28118903b" XfmrCode=CT25 buses=[l2973146.2, x2973146b.1.0, x2973146b.0.2, ]
New "Transformer.t21398646b" XfmrCode=CT25 buses=[l2973180.2, x2973180b.1.0, x2973180b.0.2, ]
New "Transformer.t5293656b" XfmrCode=CT15 buses=[l2973167.2, x2973167b.1.0, x2973167b.0.2, ]
New "Transformer.t5338910c" XfmrCode=CT25 buses=[l2841621.3, x2841621c.1.0, x2841621c.0.2, ]
New "Transformer.t28129923c" XfmrCode=CT15 buses=[l3123509.3, x3123509c.1.0, x3123509c.0.2, ]
New "Transformer.t5337716a" XfmrCode=CT15 buses=[l2841627.1, x2841627a.1.0, x2841627a.0.2, ]
New "Transformer.t5337698b" XfmrCode=CT10 buses=[l3235250.2, x3235250b.1.0, x3235250b.0.2, ]
New "Transformer.t2224386946a" XfmrCode=CT25 buses=[l3728037.1, x3728037a.1.0, x3728037a.0.2, ]
New "Transformer.t5330121b" XfmrCode=CT10 buses=[l3142078.2, x3142078b.1.0, x3142078b.0.2, ]
New "Transformer.t5323252b" XfmrCode=CT15 buses=[l2879066.2, x2879066b.1.0, x2879066b.0.2, ]
New "Transformer.t5441331c" XfmrCode=CT25 buses=[l3235254.3, x3235254c.1.0, x3235254c.0.2, ]
New "Transformer.t5260474a" XfmrCode=CT25 buses=[l2917330.1, x2917330a.1.0, x2917330a.0.2, ]
New "Transformer.t5355376b" XfmrCode=CT10 buses=[l2914323.2, x2914323b.1.0, x2914323b.0.2, ]
New "Transformer.t5338944c" XfmrCode=CT10 buses=[l3197640.3, x3197640c.1.0, x3197640c.0.2, ]
New "Transformer.t5260640c" XfmrCode=CT15 buses=[l3179673.3, x3179673c.1.0, x3179673c.0.2, ]
New "Transformer.t5274997c" XfmrCode=CT25 buses=[l3048228.3, x3048228c.1.0, x3048228c.0.2, ]
New "Transformer.t5138372c" XfmrCode=CT10 buses=[l3104126.3, x3104126c.1.0, x3104126c.0.2, ]
New "Transformer.t226308721a" XfmrCode=CT50 buses=[l2990098.1, x2990098a.1.0, x2990098a.0.2, ]
New "Transformer.t21380616a" XfmrCode=CT25 buses=[l2879067.1, x2879067a.1.0, x2879067a.0.2, ]
New "Transformer.t226193170a" XfmrCode=CT25 buses=[l3176656.1, x3176656a.1.0, x3176656a.0.2, ]
New "Transformer.t5293666c" XfmrCode=CT10 buses=[l2710532.3, x2710532c.1.0, x2710532c.0.2, ]
New "Transformer.t5338994b" XfmrCode=CT50 buses=[l3160115.2, x3160115b.1.0, x3160115b.0.2, ]
New "Transformer.t228665517c" XfmrCode=CT37 buses=[l3103822.3, x3103822c.1.0, x3103822c.0.2, ]
New "Transformer.t5260647a" XfmrCode=CT10 buses=[l2805034.1, x2805034a.1.0, x2805034a.0.2, ]
New "Transformer.t226115278a" XfmrCode=CT15 buses=[l3157167.1, x3157167a.1.0, x3157167a.0.2, ]
New "Transformer.t5338977a" XfmrCode=CT10 buses=[l2916620.1, x2916620a.1.0, x2916620a.0.2, ]
New "Transformer.t5338977b" XfmrCode=CT10 buses=[l2916620.2, x2916620b.1.0, x2916620b.0.2, ]
New "Transformer.t5338977c" XfmrCode=CT10 buses=[l2916620.3, x2916620c.1.0, x2916620c.0.2, ]
New "Transformer.t5321876a" XfmrCode=CT15 buses=[l3027132.1, x3027132a.1.0, x3027132a.0.2, ]
New "Transformer.t5275001c" XfmrCode=CT15 buses=[l2822862.3, x2822862c.1.0, x2822862c.0.2, ]
New "Transformer.t227411650c" XfmrCode=CT25 buses=[l2937757.3, x2937757c.1.0, x2937757c.0.2, ]
New "Transformer.t21396699b" XfmrCode=CT25 buses=[l2860483.2, x2860483b.1.0, x2860483b.0.2, ]
New "Transformer.t5302412a" XfmrCode=CT37 buses=[l3048210.1, x3048210a.1.0, x3048210a.0.2, ]
New "Transformer.t2223661373a" XfmrCode=CT25 buses=[l3312692.1, x3312692a.1.0, x3312692a.0.2, ]
New "Transformer.t226881700a" XfmrCode=CT25 buses=[l3251854.1, x3251854a.1.0, x3251854a.0.2, ]
New "Transformer.t5355777b" XfmrCode=CT25 buses=[l3085398.2, x3085398b.1.0, x3085398b.0.2, ]
New "Transformer.t5337671a" XfmrCode=CT15 buses=[l3254207.1, x3254207a.1.0, x3254207a.0.2, ]
New "Transformer.t5339018a" XfmrCode=CT15 buses=[l2729424.1, x2729424a.1.0, x2729424a.0.2, ]
New "Transformer.t21398676a" XfmrCode=CT15 buses=[l3066816.1, x3066816a.1.0, x3066816a.0.2, ]
New "Transformer.t5138469c" XfmrCode=CT15 buses=[l2785518.3, x2785518c.1.0, x2785518c.0.2, ]
New "Transformer.t5138373c" XfmrCode=CT15 buses=[l3029503.3, x3029503c.1.0, x3029503c.0.2, ]
New "Transformer.t5391995a" XfmrCode=CT25 buses=[l2748140.1, x2748140a.1.0, x2748140a.0.2, ]
New "Transformer.t225533423c" XfmrCode=CT15 buses=[l2891575.3, x2891575c.1.0, x2891575c.0.2, ]
New "Transformer.t5260568c" XfmrCode=CT15 buses=[l2842329.3, x2842329c.1.0, x2842329c.0.2, ]
New "Transformer.t5138754b" XfmrCode=CT37 buses=[l3254212.2, x3254212b.1.0, x3254212b.0.2, ]
New "Transformer.t5260552a" XfmrCode=CT50 buses=[l3198348.1, x3198348a.1.0, x3198348a.0.2, ]
New "Transformer.t5338968c" XfmrCode=CT75 buses=[l3178979.3, x3178979c.1.0, x3178979c.0.2, ]
New "Transformer.t5247061a" XfmrCode=CT25 buses=[l2879054.1, x2879054a.1.0, x2879054a.0.2, ]
New "Transformer.t5391746b" XfmrCode=CT10 buses=[l3085388.2, x3085388b.1.0, x3085388b.0.2, ]
New "Transformer.t5338941c" XfmrCode=CT15 buses=[l2991914.3, x2991914c.1.0, x2991914c.0.2, ]
New "Transformer.t5338982b" XfmrCode=CT25 buses=[l2785534.2, x2785534b.1.0, x2785534b.0.2, ]
New "Transformer.t5339008b" XfmrCode=CT15 buses=[l3122835.2, x3122835b.1.0, x3122835b.0.2, ]
New "Transformer.t21391094a" XfmrCode=CT15 buses=[l3085395.1, x3085395a.1.0, x3085395a.0.2, ]
New "Transformer.t5138581a" XfmrCode=CT25 buses=[l2879064.1, x2879064a.1.0, x2879064a.0.2, ]
New "Transformer.t5338979b" XfmrCode=CT10 buses=[l3066814.2, x3066814b.1.0, x3066814b.0.2, ]
New "Transformer.t226308720a" XfmrCode=CT75 buses=[l2821087.1, x2821087a.1.0, x2821087a.0.2, ]
New "Transformer.t5355595b" XfmrCode=CT10 buses=[l2860479.2, x2860479b.1.0, x2860479b.0.2, ]
New "Transformer.t2224387113a" XfmrCode=CT37 buses=[l3728042.1, x3728042a.1.0, x3728042a.0.2, ]
New "Transformer.t21397005a" XfmrCode=CT37 buses=[l2935557.1, x2935557a.1.0, x2935557a.0.2, ]
New "Transformer.t5274985c" XfmrCode=CT15 buses=[l2822864.3, x2822864c.1.0, x2822864c.0.2, ]
New "Transformer.t5321836a" XfmrCode=CT15 buses=[l3235247.1, x3235247a.1.0, x3235247a.0.2, ]
New "Transformer.t225673440a" XfmrCode=CT25 buses=[l3251807.1, x3251807a.1.0, x3251807a.0.2, ]
New "Transformer.t5337641c" XfmrCode=CT15 buses=[l2804282.3, x2804282c.1.0, x2804282c.0.2, ]
New "Transformer.t5293659c" XfmrCode=CT15 buses=[l2935560.3, x2935560c.1.0, x2935560c.0.2, ]
New "Transformer.t5339011b" XfmrCode=CT15 buses=[l3104145.2, x3104145b.1.0, x3104145b.0.2, ]
New "Transformer.t5218473a" XfmrCode=CT25 buses=[l3086078.1, x3086078a.1.0, x3086078a.0.2, ]
New "Transformer.t28121587a" XfmrCode=CT15 buses=[l2860477.1, x2860477a.1.0, x2860477a.0.2, ]
New "Transformer.t2224230689c" XfmrCode=CT75 buses=[l3645811.3, x3645811c.1.0, x3645811c.0.2, ]
New "Transformer.t227734175b" XfmrCode=CT25 buses=[l3102793.2, x3102793b.1.0, x3102793b.0.2, ]
New "Transformer.t5337694b" XfmrCode=CT15 buses=[l2991910.2, x2991910b.1.0, x2991910b.0.2, ]
New "Transformer.t21357515a" XfmrCode=CT25 buses=[l2710511.1, x2710511a.1.0, x2710511a.0.2, ]
New "Transformer.t28127390c" XfmrCode=CT15 buses=[l2860486.1, x2860486c.1.0, x2860486c.0.2, ]
New "Transformer.t21387929c" XfmrCode=CT15 buses=[l2935551.3, x2935551c.1.0, x2935551c.0.2, ]
New "Transformer.t5355605b" XfmrCode=CT25 buses=[l2729409.2, x2729409b.1.0, x2729409b.0.2, ]
New "Transformer.t5260630b" XfmrCode=CT15 buses=[l2973833.2, x2973833b.1.0, x2973833b.0.2, ]
New "Transformer.t5337660c" XfmrCode=CT25 buses=[l2897769.3, x2897769c.1.0, x2897769c.0.2, ]
New "Transformer.t5293663c" XfmrCode=CT15 buses=[l3216368.3, x3216368c.1.0, x3216368c.0.2, ]
New "Transformer.t5138719a" XfmrCode=CT25 buses=[l2860490.1, x2860490a.1.0, x2860490a.0.2, ]
New "Transformer.t5251858c" XfmrCode=CT25 buses=[l2861158.3, x2861158c.1.0, x2861158c.0.2, ]
New "Transformer.t5302804c" XfmrCode=CT37 buses=[l3141399.1, x3141399c.1.0, x3141399c.0.2, ]
New "Transformer.t5356062b" XfmrCode=CT25 buses=[l3122816.2, x3122816b.1.0, x3122816b.0.2, ]
New "Transformer.t5346639c" XfmrCode=CT15 buses=[l2992556.1, x2992556a.1.0, x2992556a.0.2, ]
New "Transformer.t5302508c" XfmrCode=CT25 buses=[l2897779.3, x2897779c.1.0, x2897779c.0.2, ]
New "Transformer.t5321881a" XfmrCode=CT25 buses=[l2970811.1, x2970811a.1.0, x2970811a.0.2, ]
New "Transformer.t5355433c" XfmrCode=CT50 buses=[l2991933.3, x2991933c.1.0, x2991933c.0.2, ]
New "Transformer.t21398402a" XfmrCode=CT15 buses=[l2729428.1, x2729428a.1.0, x2729428a.0.2, ]
New "Transformer.t21398563a" XfmrCode=CT25 buses=[l3254216.1, x3254216a.1.0, x3254216a.0.2, ]
New "Transformer.t21386771b" XfmrCode=CT15 buses=[l2897807.2, x2897807b.1.0, x2897807b.0.2, ]
New "Transformer.t5260648a" XfmrCode=CT25 buses=[l2898522.1, x2898522a.1.0, x2898522a.0.2, ]
New "Transformer.t5293490c" XfmrCode=CT25 buses=[l3048230.3, x3048230c.1.0, x3048230c.0.2, ]
New "Transformer.t225901711a" XfmrCode=CT15 buses=[l3195327.1, x3195327a.1.0, x3195327a.0.2, ]
New "Transformer.t227902981a" XfmrCode=CT37 buses=[l3047058.1, x3047058a.1.0, x3047058a.0.2, ]
New "Transformer.t5321853b" XfmrCode=CT25 buses=[l2673313.2, x2673313b.1.0, x2673313b.0.2, ]
New "Transformer.t2224237653a" XfmrCode=CT37 buses=[l3649302.1, x3649302a.1.0, x3649302a.0.2, ]
New "Transformer.t2224386592a" XfmrCode=CT25 buses=[l3729297.1, x3729297a.1.0, x3729297a.0.2, ]
New "Transformer.t5391990a" XfmrCode=CT15 buses=[l2858163.1, x2858163a.1.0, x2858163a.0.2, ]
New "Transformer.t226881057b" XfmrCode=CT15 buses=[l3214112.2, x3214112b.1.0, x3214112b.0.2, ]
New "Transformer.t225533531a" XfmrCode=CT25 buses=[l2685805.1, x2685805a.1.0, x2685805a.0.2, ]
New "Transformer.t5247056a" XfmrCode=CT15 buses=[l2991912.1, x2991912a.1.0, x2991912a.0.2, ]
New "Transformer.t227905262a" XfmrCode=CT25 buses=[l3140238.1, x3140238a.1.0, x3140238a.0.2, ]
New "Transformer.t21469960b" XfmrCode=CT25 buses=[l3066830.2, x3066830b.1.0, x3066830b.0.2, ]
New "Transformer.t5260511c" XfmrCode=CT15 buses=[l3160878.3, x3160878c.1.0, x3160878c.0.2, ]
New "Transformer.t5138346c" XfmrCode=CT15 buses=[l2916609.3, x2916609c.1.0, x2916609c.0.2, ]
New "Transformer.t225806974a" XfmrCode=CT10 buses=[l2876814.1, x2876814a.1.0, x2876814a.0.2, ]
New "Transformer.t5355944b" XfmrCode=CT25 buses=[l3197646.2, x3197646b.1.0, x3197646b.0.2, ]
New "Transformer.t5138569a" XfmrCode=CT15 buses=[l2973151.1, x2973151a.1.0, x2973151a.0.2, ]
New "Transformer.t5337625c" XfmrCode=CT25 buses=[l3197627.3, x3197627c.1.0, x3197627c.0.2, ]
New "Transformer.t5321874a" XfmrCode=CT25 buses=[l2764412.1, x2764412a.1.0, x2764412a.0.2, ]
New "Transformer.t5337713c" XfmrCode=CT15 buses=[l2766716.3, x2766716c.1.0, x2766716c.0.2, ]
New "Transformer.t5391757b" XfmrCode=CT10 buses=[l2991917.2, x2991917b.1.0, x2991917b.0.2, ]
New "Transformer.t5338998b" XfmrCode=CT25 buses=[l3254229.2, x3254229b.1.0, x3254229b.0.2, ]
New "Transformer.t5356064b" XfmrCode=CT25 buses=[l2935556.2, x2935556b.1.0, x2935556b.0.2, ]
New "Transformer.t5323275b" XfmrCode=CT25 buses=[l3197660.2, x3197660b.1.0, x3197660b.0.2, ]
New "Transformer.t21389237a" XfmrCode=CT25 buses=[l2989565.1, x2989565a.1.0, x2989565a.0.2, ]
New "Transformer.t2224230615c" XfmrCode=CT50 buses=[l3645809.3, x3645809c.1.0, x3645809c.0.2, ]
New "Transformer.t5260463b" XfmrCode=CT15 buses=[l3086075.2, x3086075b.1.0, x3086075b.0.2, ]
New "Transformer.t5302402a" XfmrCode=CT15 buses=[l3122824.1, x3122824a.1.0, x3122824a.0.2, ]
New "Transformer.t5355599b" XfmrCode=CT25 buses=[l3216338.2, x3216338b.1.0, x3216338b.0.2, ]
New "Transformer.t21393412b" XfmrCode=CT25 buses=[l2729405.2, x2729405b.1.0, x2729405b.0.2, ]
New "Transformer.t5356807a" XfmrCode=CT25 buses=[l2823545.1, x2823545a.1.0, x2823545a.0.2, ]
...
